Test_Network/condensed/network_5/Lines.txt
New Line.LINE11 Bus1=11 Bus2=12 phases=3 Linecode=5c_.06 Length=0.25109 Units=m
New Line.LINE12 Bus1=12 Bus2=13 phases=3 Linecode=5c_.06 Length=0.048466 Units=m
New Line.LINE13 Bus1=13 Bus2=14 phases=3 Linecode=5c_.06 Length=0.054999 Units=m
New Line.LINE14 Bus1=14 Bus2=15 phases=3 Linecode=5c_.06 Length=0.048167 Units=m
New Line.LINE15 Bus1=15 Bus2=16 phases=3 Linecode=5c_.06 Length=0.046141 Units=m
New Line.LINE16 Bus1=16 Bus2=17 phases=3 Linecode=5c_.06 Length=0.043463 Units=m
New Line.LINE17 Bus1=17 Bus2=18 phases=3 Linecode=5c_.06 Length=0.061659 Units=m
New Line.LINE18 Bus1=18 Bus2=19 phases=3 Linecode=5c_.06 Length=0.030017 Units=m
New Line.LINE19 Bus1=19 Bus2=110 phases=3 Linecode=5c_.06 Length=0.036223 Units=m
New Line.LINE110 Bus1=110 Bus2=111 phases=3 Linecode=5c_.06 Length=3.3729 Units=m
New Line.LINE111 Bus1=111 Bus2=112 phases=3 Linecode=5c_.06 Length=0.090378 Units=m
New Line.LINE112 Bus1=112 Bus2=113 phases=3 Linecode=5c_.06 Length=0.08071 Units=m
New Line.LINE113 Bus1=113 Bus2=114 phases=3 Linecode=5c_.06 Length=0.082806 Units=m
New Line.LINE114 Bus1=114 Bus2=115 phases=3 Linecode=5c_.06 Length=0.49759 Units=m
New Line.LINE115 Bus1=115 Bus2=116 phases=3 Linecode=5c_.06 Length=2.7717 Units=m
New Line.LINE116 Bus1=116 Bus2=117 phases=3 Linecode=5c_.06 Length=2.2246 Units=m
New Line.LINE117 Bus1=117 Bus2=118 phases=3 Linecode=5c_.06 Length=2.5079 Units=m
New Line.LINE118 Bus1=118 Bus2=119 phases=3 Linecode=5c_.06 Length=1.1208 Units=m
New Line.LINE119 Bus1=119 Bus2=120 phases=3 Linecode=5c_.06 Length=9.9483 Units=m
New Line.LINE120 Bus1=120 Bus2=121 phases=3 Linecode=5c_.06 Length=0.60681 Units=m
New Line.LINE121 Bus1=121 Bus2=122 phases=3 Linecode=5c_.06 Length=0.37184 Units=m
New Line.LINE122 Bus1=122 Bus2=123 phases=3 Linecode=5c_.06 Length=0.52667 Units=m
New Line.LINE123 Bus1=123 Bus2=124 phases=3 Linecode=5c_.06 Length=0.077877 Units=m
New Line.LINE124 Bus1=124 Bus2=125 phases=3 Linecode=5c_.06 Length=0.1005 Units=m
New Line.LINE125 Bus1=125 Bus2=126 phases=3 Linecode=5c_.06 Length=0.13665 Units=m
New Line.LINE126 Bus1=126 Bus2=127 phases=3 Linecode=5c_.06 Length=0.17021 Units=m
New Line.LINE127 Bus1=127 Bus2=128 phases=3 Linecode=5c_.06 Length=0.09586 Units=m
New Line.LINE128 Bus1=128 Bus2=129 phases=3 Linecode=5c_.06 Length=0.073825 Units=m
New Line.LINE129 Bus1=129 Bus2=130 phases=3 Linecode=5c_.06 Length=0.11507 Units=m
New Line.LINE130 Bus1=130 Bus2=131 phases=3 Linecode=5c_.06 Length=0.28185 Units=m
New Line.LINE131 Bus1=131 Bus2=132 phases=3 Linecode=5c_.06 Length=0.59096 Units=m
New Line.LINE132 Bus1=132 Bus2=133 phases=3 Linecode=5c_.06 Length=0.40048 Units=m
New Line.LINE133 Bus1=133 Bus2=134 phases=3 Linecode=5c_.1 Length=3.069 Units=m
New Line.LINE135 Bus1=134 Bus2=136 phases=3 Linecode=5c_.1 Length=13.3501 Units=m
New Line.LINE137 Bus1=136 Bus2=138 phases=3 Linecode=5c_.04 Length=0.28954 Units=m
New Line.LINE140 Bus1=138 Bus2=141 phases=3 Linecode=5c_.04 Length=0.23424 Units=m
New Line.LINE143 Bus1=141 Bus2=144 phases=3 Linecode=5c_.04 Length=0.35396 Units=m
New Line.LINE146 Bus1=144 Bus2=147 phases=3 Linecode=5c_.04 Length=0.25602 Units=m
New Line.LINE149 Bus1=147 Bus2=150 phases=3 Linecode=5c_.04 Length=0.55258 Units=m
New Line.LINE152 Bus1=150 Bus2=153 phases=3 Linecode=5c_.04 Length=0.5228 Units=m
New Line.LINE154 Bus1=152 Bus2=155 phases=3 Linecode=2c_.0145 Length=3.8601 Units=m
New Line.LINE156 Bus1=153 Bus2=157 phases=3 Linecode=5c_.04 Length=0.24286 Units=m
New Line.LINE159 Bus1=157 Bus2=160 phases=3 Linecode=5c_.04 Length=0.17204 Units=m
New Line.LINE162 Bus1=160 Bus2=163 phases=3 Linecode=5c_.04 Length=0.38774 Units=m
New Line.LINE165 Bus1=163 Bus2=166 phases=3 Linecode=5c_.04 Length=0.37353 Units=m
New Line.LINE168 Bus1=166 Bus2=169 phases=3 Linecode=5c_.04 Length=0.64039 Units=m
New Line.LINE171 Bus1=169 Bus2=172 phases=3 Linecode=5c_.04 Length=1.6055 Units=m
New Line.LINE174 Bus1=172 Bus2=175 phases=3 Linecode=5c_.04 Length=4.8539 Units=m
New Line.LINE176 Bus1=175 Bus2=177 phases=3 Linecode=5c_.04 Length=2.477 Units=m
New Line.LINE179 Bus1=177 Bus2=180 phases=3 Linecode=5c_.04 Length=0.92265 Units=m
New Line.LINE182 Bus1=180 Bus2=183 phases=3 Linecode=5c_.04 Length=3.0745 Units=m
New Line.LINE185 Bus1=183 Bus2=186 phases=3 Linecode=5c_.04 Length=5.8298 Units=m
New Line.LINE188 Bus1=186 Bus2=189 phases=3 Linecode=5c_.04 Length=3.6272 Units=m
New Line.LINE191 Bus1=189 Bus2=192 phases=3 Linecode=5c_.04 Length=0.44002 Units=m
New Line.LINE193 Bus1=192 Bus2=194 phases=3 Linecode=5c_.04 Length=5.3325 Units=m
New Line.LINE195 Bus1=194 Bus2=196 phases=3 Linecode=2c_.0145 Length=6.8778 Units=m
New Line.LINE198 Bus1=196 Bus2=199 phases=3 Linecode=2c_.0145 Length=5.3558 Units=m
New Line.LINE1Cmpd_0 Bus1=134 Bus2=152 phases=3 Linecode=2c_.0145 Length=14.408557 Units=m
New Line.LINE1Cmpd_1 Bus1=152 Bus2=187 phases=3 Linecode=2c_.0145 Length=11.438564 Units=m
New Line.LINE1Cmpd_2 Bus1=196 Bus2=1130 phases=3 Linecode=2c_.0145 Length=11.340087 Units=m
New Line.LINE21 Bus1=11 Bus2=22 phases=3 Linecode=5c_.1 Length=0.13724 Units=m
New Line.LINE22 Bus1=22 Bus2=23 phases=3 Linecode=5c_.1 Length=0.051866 Units=m
New Line.LINE23 Bus1=23 Bus2=24 phases=3 Linecode=5c_.1 Length=0.038012 Units=m
New Line.LINE24 Bus1=24 Bus2=25 phases=3 Linecode=5c_.1 Length=0.044554 Units=m
New Line.LINE25 Bus1=25 Bus2=26 phases=3 Linecode=5c_.1 Length=0.045607 Units=m
New Line.LINE26 Bus1=26 Bus2=27 phases=3 Linecode=5c_.1 Length=0.06174 Units=m
New Line.LINE27 Bus1=27 Bus2=28 phases=3 Linecode=5c_.1 Length=0.048836 Units=m
New Line.LINE28 Bus1=28 Bus2=29 phases=3 Linecode=5c_.1 Length=0.037122 Units=m
New Line.LINE29 Bus1=29 Bus2=210 phases=3 Linecode=5c_.1 Length=0.056886 Units=m
New Line.LINE210 Bus1=210 Bus2=211 phases=3 Linecode=5c_.1 Length=2.8399 Units=m
New Line.LINE211 Bus1=211 Bus2=212 phases=3 Linecode=5c_.1 Length=0.063976 Units=m
New Line.LINE212 Bus1=212 Bus2=213 phases=3 Linecode=5c_.1 Length=0.043863 Units=m
New Line.LINE213 Bus1=213 Bus2=214 phases=3 Linecode=5c_.1 Length=0.05801 Units=m
New Line.LINE214 Bus1=214 Bus2=215 phases=3 Linecode=5c_.1 Length=0.051662 Units=m
New Line.LINE215 Bus1=215 Bus2=216 phases=3 Linecode=5c_.1 Length=0.087618 Units=m
New Line.LINE216 Bus1=216 Bus2=217 phases=3 Linecode=5c_.1 Length=0.40052 Units=m
New Line.LINE217 Bus1=217 Bus2=218 phases=3 Linecode=5c_.1 Length=0.055606 Units=m
New Line.LINE218 Bus1=218 Bus2=219 phases=3 Linecode=5c_.1 Length=0.062937 Units=m
New Line.LINE219 Bus1=219 Bus2=220 phases=3 Linecode=5c_.1 Length=0.064661 Units=m
New Line.LINE220 Bus1=220 Bus2=221 phases=3 Linecode=5c_.1 Length=0.063134 Units=m
New Line.LINE221 Bus1=221 Bus2=222 phases=3 Linecode=5c_.1 Length=0.062651 Units=m
New Line.LINE222 Bus1=222 Bus2=223 phases=3 Linecode=5c_.1 Length=2.6007 Units=m
New Line.LINE223 Bus1=223 Bus2=224 phases=3 Linecode=5c_.1 Length=2.285 Units=m
New Line.LINE224 Bus1=224 Bus2=225 phases=3 Linecode=5c_.1 Length=0.5019 Units=m
New Line.LINE225 Bus1=225 Bus2=226 phases=3 Linecode=5c_.1 Length=0.14425 Units=m
New Line.LINE226 Bus1=226 Bus2=227 phases=3 Linecode=5c_.1 Length=0.15513 Units=m
New Line.LINE227 Bus1=227 Bus2=228 phases=3 Linecode=5c_.1 Length=0.12587 Units=m
New Line.LINE228 Bus1=228 Bus2=229 phases=3 Linecode=5c_.1 Length=0.14785 Units=m
New Line.LINE229 Bus1=229 Bus2=230 phases=3 Linecode=5c_.1 Length=0.25372 Units=m
New Line.LINE230 Bus1=230 Bus2=231 phases=3 Linecode=5c_.1 Length=0.19625 Units=m
New Line.LINE231 Bus1=231 Bus2=232 phases=3 Linecode=5c_.1 Length=0.18697 Units=m
New Line.LINE232 Bus1=232 Bus2=233 phases=3 Linecode=5c_.06 Length=2.595 Units=m
New Line.LINE234 Bus1=233 Bus2=235 phases=3 Linecode=5c_.06 Length=2.608 Units=m
New Line.LINE237 Bus1=235 Bus2=238 phases=3 Linecode=5c_.06 Length=2.5008 Units=m
New Line.LINE251 Bus1=249 Bus2=252 phases=3 Linecode=2c_.0225 Length=6.7057 Units=m
New Line.LINE255 Bus1=252 Bus2=256 phases=3 Linecode=2c_.0225 Length=5.5592 Units=m
New Line.LINE256 Bus1=252 Bus2=257 phases=3 Linecode=2c_.0225 Length=5.5592 Units=m
New Line.LINE267 Bus1=263 Bus2=268 phases=3 Linecode=4c_.0145 Length=8.2989 Units=m
New Line.LINE272 Bus1=268 Bus2=273 phases=3 Linecode=4c_.0145 Length=5.6569 Units=m
New Line.LINE273 Bus1=268 Bus2=274 phases=3 Linecode=4c_.0145 Length=5.6569 Units=m
New Line.LINE298 Bus1=295 Bus2=299 phases=3 Linecode=5c_.06 Length=5.3315 Units=m
New Line.LINE2102 Bus1=299 Bus2=2103 phases=3 Linecode=4c_.0145 Length=8.9794 Units=m
New Line.LINE2106 Bus1=2103 Bus2=2107 phases=3 Linecode=25_SAC_XC Length=4.4241 Units=m
New Line.LINE2139 Bus1=2136 Bus2=2140 phases=3 Linecode=5c_.06 Length=4.2893 Units=m
New Line.LINE2186 Bus1=2185 Bus2=2187 phases=3 Linecode=5c_.06 Length=1.8341 Units=m
New Line.LINE2188 Bus1=2187 Bus2=2189 phases=3 Linecode=5c_.06 Length=4.2431 Units=m
New Line.LINE2189 Bus1=2189 Bus2=2190 phases=3 Linecode=5c_.06 Length=2.6103 Units=m
New Line.LINE2190 Bus1=2190 Bus2=2191 phases=3 Linecode=25_SAC_XC Length=7.4975 Units=m
New Line.LINE2192 Bus1=2191 Bus2=2193 phases=3 Linecode=25_SAC_XC Length=4.6531 Units=m
New Line.LINE2Cmpd_0 Bus1=263 Bus2=295 phases=3 Linecode=5c_.06 Length=14.28693 Units=m
New Line.LINE2Cmpd_1 Bus1=2154 Bus2=2176 phases=3 Linecode=5c_.06 Length=48.21939 Units=m
New Line.LINE2Cmpd_2 Bus1=2185 Bus2=2188 phases=3 Linecode=25_SAC_XC Length=13.147 Units=m
New Line.LINE2Cmpd_3 Bus1=2176 Bus2=2181 phases=3 Linecode=5c_.06 Length=13.5007 Units=m
New Line.LINE2Cmpd_4 Bus1=249 Bus2=263 phases=3 Linecode=5c_.06 Length=13.673 Units=m
New Line.LINE2Cmpd_5 Bus1=2154 Bus2=2157 phases=3 Linecode=2c_.0225 Length=12.461 Units=m
New Line.LINE2Cmpd_6 Bus1=2150 Bus2=2154 phases=3 Linecode=5c_.06 Length=3.99381 Units=m
New Line.LINE2Cmpd_7 Bus1=2108 Bus2=2128 phases=3 Linecode=5c_.06 Length=18.9318 Units=m
New Line.LINE2Cmpd_8 Bus1=2176 Bus2=2179 phases=3 Linecode=25_SAC_XC Length=13.0063 Units=m
New Line.LINE2Cmpd_9 Bus1=2140 Bus2=2146 phases=3 Linecode=5c_.06 Length=8.41169 Units=m
New Line.LINE2Cmpd_10 Bus1=2181 Bus2=2184 phases=3 Linecode=25_SAC_XC Length=13.1125 Units=m
New Line.LINE2Cmpd_11 Bus1=295 Bus2=2102 phases=3 Linecode=2c_.0145 Length=12.6917 Units=m
New Line.LINE2Cmpd_12 Bus1=2108 Bus2=2120 phases=3 Linecode=16_PSC Length=14.13663 Units=m
New Line.LINE2Cmpd_13 Bus1=299 Bus2=2108 phases=3 Linecode=5c_.06 Length=12.0566 Units=m
New Line.LINE2Cmpd_14 Bus1=2140 Bus2=2145 phases=3 Linecode=2c_.0225 Length=16.7098 Units=m
New Line.LINE2Cmpd_15 Bus1=2128 Bus2=2138 phases=3 Linecode=2c_.0225 Length=15.34925 Units=m
New Line.LINE2Cmpd_16 Bus1=2128 Bus2=2136 phases=3 Linecode=5c_.06 Length=7.2942 Units=m
New Line.LINE2Cmpd_17 Bus1=238 Bus2=249 phases=3 Linecode=5c_.06 Length=14.05352 Units=m
New Line.LINE2Cmpd_18 Bus1=2146 Bus2=2149 phases=3 Linecode=2c_.0225 Length=10.4185 Units=m
New Line.LINE2Cmpd_19 Bus1=238 Bus2=245 phases=3 Linecode=2c_.0225 Length=13.3983 Units=m
New Line.LINE2Cmpd_20 Bus1=2136 Bus2=2142 phases=3 Linecode=2c_.0225 Length=16.4094 Units=m
New Line.LINE2Cmpd_21 Bus1=2146 Bus2=2150 phases=3 Linecode=5c_.06 Length=4.433323 Units=m
New Line.LINE2Cmpd_22 Bus1=2181 Bus2=2185 phases=3 Linecode=5c_.06 Length=9.4579 Units=m
New Line.LINE2Cmpd_23 Bus1=2150 Bus2=2153 phases=3 Linecode=2c_.0225 Length=11.2595 Units=m
New Line.LINE31 Bus1=11 Bus2=32 phases=3 Linecode=4c_.2_SAC Length=0.75249 Units=m
New Line.LINE32 Bus1=32 Bus2=33 phases=3 Linecode=4c_.2_SAC Length=0.058188 Units=m
New Line.LINE33 Bus1=33 Bus2=34 phases=3 Linecode=4c_.2_SAC Length=0.048417 Units=m
New Line.LINE34 Bus1=34 Bus2=35 phases=3 Linecode=4c_.2_SAC Length=0.048795 Units=m
New Line.LINE35 Bus1=35 Bus2=36 phases=3 Linecode=4c_.2_SAC Length=0.044654 Units=m
New Line.LINE36 Bus1=36 Bus2=37 phases=3 Linecode=4c_.2_SAC Length=0.053852 Units=m
New Line.LINE37 Bus1=37 Bus2=38 phases=3 Linecode=4c_.2_SAC Length=0.04589 Units=m
New Line.LINE38 Bus1=38 Bus2=39 phases=3 Linecode=4c_.2_SAC Length=0.037015 Units=m
New Line.LINE39 Bus1=39 Bus2=310 phases=3 Linecode=4c_.2_SAC Length=0.060531 Units=m
New Line.LINE310 Bus1=310 Bus2=311 phases=3 Linecode=4c_.2_SAC Length=2.3662 Units=m
New Line.LINE311 Bus1=311 Bus2=312 phases=3 Linecode=4c_.2_SAC Length=0.06316 Units=m
New Line.LINE312 Bus1=312 Bus2=313 phases=3 Linecode=4c_.2_SAC Length=0.059539 Units=m
New Line.LINE313 Bus1=313 Bus2=314 phases=3 Linecode=4c_.2_SAC Length=0.065 Units=m
New Line.LINE314 Bus1=314 Bus2=315 phases=3 Linecode=4c_.2_SAC Length=0.069355 Units=m
New Line.LINE315 Bus1=315 Bus2=316 phases=3 Linecode=4c_.2_SAC Length=0.37752 Units=m
New Line.LINE316 Bus1=316 Bus2=317 phases=3 Linecode=4c_.2_SAC Length=0.053151 Units=m
New Line.LINE317 Bus1=317 Bus2=318 phases=3 Linecode=4c_.2_SAC Length=0.057706 Units=m
New Line.LINE318 Bus1=318 Bus2=319 phases=3 Linecode=4c_.2_SAC Length=0.03614 Units=m
New Line.LINE319 Bus1=319 Bus2=320 phases=3 Linecode=4c_.2_SAC Length=0.046389 Units=m
New Line.LINE320 Bus1=320 Bus2=321 phases=3 Linecode=4c_.2_SAC Length=0.046098 Units=m
New Line.LINE321 Bus1=321 Bus2=322 phases=3 Linecode=4c_.2_SAC Length=5.1968 Units=m
New Line.LINE322 Bus1=322 Bus2=323 phases=3 Linecode=5c_.04 Length=0.1808 Units=m
New Line.LINE323 Bus1=323 Bus2=324 phases=3 Linecode=5c_.04 Length=0.1695 Units=m
New Line.LINE324 Bus1=324 Bus2=325 phases=3 Linecode=5c_.04 Length=1.6284 Units=m
New Line.LINE325 Bus1=325 Bus2=326 phases=3 Linecode=5c_.04 Length=0.76569 Units=m
New Line.LINE326 Bus1=326 Bus2=327 phases=3 Linecode=5c_.04 Length=1.4137 Units=m
New Line.LINE327 Bus1=327 Bus2=328 phases=3 Linecode=5c_.04 Length=9.5944 Units=m
New Line.LINE328 Bus1=328 Bus2=329 phases=3 Linecode=5c_.04 Length=0.65888 Units=m
New Line.LINE329 Bus1=329 Bus2=330 phases=3 Linecode=5c_.04 Length=0.11183 Units=m
New Line.LINE330 Bus1=330 Bus2=331 phases=3 Linecode=5c_.04 Length=0.084204 Units=m
New Line.LINE331 Bus1=331 Bus2=332 phases=3 Linecode=5c_.04 Length=0.1217 Units=m
New Line.LINE332 Bus1=332 Bus2=333 phases=3 Linecode=5c_.04 Length=0.21051 Units=m
New Line.LINE333 Bus1=333 Bus2=334 phases=3 Linecode=5c_.04 Length=0.13147 Units=m
New Line.LINE334 Bus1=334 Bus2=335 phases=3 Linecode=5c_.04 Length=0.17877 Units=m
New Line.LINE335 Bus1=335 Bus2=336 phases=3 Linecode=5c_.04 Length=0.15174 Units=m
New Line.LINE336 Bus1=336 Bus2=337 phases=3 Linecode=5c_.04 Length=0.197 Units=m
New Line.LINE337 Bus1=337 Bus2=338 phases=3 Linecode=5c_.04 Length=0.24748 Units=m
New Line.LINE338 Bus1=338 Bus2=339 phases=3 Linecode=5c_.04 Length=0.6069 Units=m
New Line.LINE339 Bus1=339 Bus2=340 phases=3 Linecode=5c_.04 Length=1.5167 Units=m
New Line.LINE340 Bus1=340 Bus2=341 phases=3 Linecode=5c_.04 Length=2.8184 Units=m
New Line.LINE341 Bus1=341 Bus2=342 phases=3 Linecode=5c_.04 Length=7.9324 Units=m
New Line.LINE342 Bus1=342 Bus2=343 phases=3 Linecode=5c_.04 Length=2.3456 Units=m
New Line.LINE343 Bus1=343 Bus2=344 phases=3 Linecode=5c_.04 Length=4.2054 Units=m
New Line.LINE344 Bus1=344 Bus2=345 phases=3 Linecode=5c_.04 Length=0.27795 Units=m
New Line.LINE345 Bus1=345 Bus2=346 phases=3 Linecode=5c_.04 Length=0.19488 Units=m
New Line.LINE346 Bus1=346 Bus2=347 phases=3 Linecode=5c_.04 Length=0.16996 Units=m
New Line.LINE347 Bus1=347 Bus2=348 phases=3 Linecode=5c_.04 Length=0.185 Units=m
New Line.LINE348 Bus1=348 Bus2=349 phases=3 Linecode=5c_.04 Length=0.17111 Units=m
New Line.LINE349 Bus1=349 Bus2=350 phases=3 Linecode=5c_.04 Length=0.12219 Units=m
New Line.LINE350 Bus1=350 Bus2=351 phases=3 Linecode=5c_.04 Length=0.099724 Units=m
New Line.LINE351 Bus1=351 Bus2=352 phases=3 Linecode=5c_.04 Length=0.14094 Units=m
New Line.LINE352 Bus1=352 Bus2=353 phases=3 Linecode=5c_.04 Length=0.28851 Units=m
New Line.LINE353 Bus1=353 Bus2=354 phases=3 Linecode=5c_.04 Length=0.68602 Units=m
New Line.LINE354 Bus1=354 Bus2=355 phases=3 Linecode=5c_.04 Length=0.64285 Units=m
New Line.LINE355 Bus1=355 Bus2=356 phases=3 Linecode=5c_.04 Length=0.37389 Units=m
New Line.LINE356 Bus1=356 Bus2=357 phases=3 Linecode=5c_.04 Length=1.138 Units=m
New Line.LINE357 Bus1=357 Bus2=358 phases=3 Linecode=5c_.04 Length=1.6386 Units=m
New Line.LINE358 Bus1=358 Bus2=359 phases=3 Linecode=5c_.04 Length=0.67996 Units=m
New Line.LINE359 Bus1=359 Bus2=360 phases=3 Linecode=5c_.04 Length=1.4631 Units=m
New Line.LINE360 Bus1=360 Bus2=361 phases=3 Linecode=5c_.04 Length=9.8586 Units=m
New Line.LINE361 Bus1=361 Bus2=362 phases=3 Linecode=5c_.04 Length=6.2508 Units=m
New Line.LINE363 Bus1=362 Bus2=364 phases=3 Linecode=5c_.04 Length=0.22857 Units=m
New Line.LINE365 Bus1=364 Bus2=366 phases=3 Linecode=2c_.0145 Length=16.4023 Units=m
New Line.LINE366 Bus1=364 Bus2=367 phases=3 Linecode=5c_.04 Length=9.2431 Units=m
New Line.LINE368 Bus1=366 Bus2=369 phases=3 Linecode=2c_.0145 Length=4.5267 Units=m
New Line.LINE370 Bus1=367 Bus2=371 phases=3 Linecode=2c_.0145 Length=15.7165 Units=m
New Line.LINE371 Bus1=367 Bus2=372 phases=3 Linecode=5c_.04 Length=5.5802 Units=m
...
